New line.
Modifying this file.
Modifying file from Local.
